<?xml version="1.0" encoding="UTF-8"?>
<routes xmlns:xsi="http://www.w3.org/2001/XMLSchema-instance"
        xsi:noNamespaceSchemaLocation="http://sumo.dlr.de/xsd/routes_file.xsd">

    <!-- Vehicle Types -->
    <vType id="car" accel="2.0" decel="4.5" length="5" maxSpeed="50" sigma="0.5" vClass="passenger"/>

    <!-- Pedestrian Type -->
    <vType id="pedestrian" vClass="pedestrian" width="0.5" length="0.3" desiredMaxSpeed="1.3"/>

    <!-- =======================
         VEHICLE FLOWS (CARS)
         ======================= -->

    <!-- North to South -->
    <flow id="car_N_S" type="car" begin="0" end="3600"
          from="north_in" to="south_out" number="300"/>
    <!-- North to East -->
    <flow id="car_N_E" type="car" begin="0" end="3600"
          from="north_in" to="east_out" number="300"/>
    <!-- North to West -->
    <flow id="car_N_W" type="car" begin="0" end="3600"
          from="north_in" to="west_out" number="300"/>

    <!-- South to North -->
    <flow id="car_S_N" type="car" begin="0" end="3600"
          from="south_in" to="north_out" number="300"/>
    <!-- South to East -->
    <flow id="car_S_E" type="car" begin="0" end="3600"
          from="south_in" to="east_out" number="300"/>
    <!-- South to West -->
    <flow id="car_S_W" type="car" begin="0" end="3600"
          from="south_in" to="west_out" number="300"/>

    <!-- East to North -->
    <flow id="car_E_N" type="car" begin="0" end="3600"
          from="east_in" to="north_out" number="300"/>
    <!-- East to South -->
    <flow id="car_E_S" type="car" begin="0" end="3600"
          from="east_in" to="south_out" number="300"/>
    <!-- East to West -->
    <flow id="car_E_W" type="car" begin="0" end="3600"
          from="east_in" to="west_out" number="300"/>

    <!-- West to North -->
    <flow id="car_W_N" type="car" begin="0" end="3600"
          from="west_in" to="north_out" number="300"/>
    <!-- West to South -->
    <flow id="car_W_S" type="car" begin="0" end="3600"
          from="west_in" to="south_out" number="300"/>
    <!-- West to East -->
    <flow id="car_W_E" type="car" begin="0" end="3600"
          from="west_in" to="east_out" number="300"/>
    
    <!-- =======================
         PEDESTRIAN FLOWS
         ======================= -->  

    <personFlow id="ped_N_S" begin="0" end="3600" number="200">
        <walk from="north_in" to="south_out"/>
    </personFlow>

    <personFlow id="ped_N_E" begin="0" end="3600" number="200">
        <walk from="north_in" to="east_out"/>
    </personFlow>

    <personFlow id="ped_N_W" begin="0" end="3600" number="200">
        <walk from="north_in" to="west_out"/>
    </personFlow>

    <personFlow id="ped_S_N" begin="0" end="3600" number="200">
        <walk from="south_in" to="north_out"/>
    </personFlow>

    <personFlow id="ped_S_E" begin="0" end="3600" number="200">
        <walk from="south_in" to="east_out"/>
    </personFlow>

    <personFlow id="ped_S_W" begin="0" end="3600" number="200">
        <walk from="south_in" to="west_out"/>
    </personFlow>

    <personFlow id="ped_E_N" begin="0" end="3600" number="200">
        <walk from="east_in" to="north_out"/>
    </personFlow>

    <personFlow id="ped_E_S" begin="0" end="3600" number="200">
        <walk from="east_in" to="south_out"/>
    </personFlow>

    <personFlow id="ped_E_W" begin="0" end="3600" number="200">
        <walk from="east_in" to="west_out"/>
    </personFlow>

    <personFlow id="ped_W_N" begin="0" end="3600" number="200">
        <walk from="west_in" to="north_out"/>
    </personFlow>

    <personFlow id="ped_W_S" begin="0" end="3600" number="200">
        <walk from="west_in" to="south_out"/>
    </personFlow>

    <personFlow id="ped_W_E" begin="0" end="3600" number="200">
        <walk from="west_in" to="east_out"/>
    </personFlow>

    

</routes>
