<?xml version="1.0" encoding="UTF-8"?>

<!-- generated on 2025-10-27 00:58:45 by Eclipse SUMO netedit Version 1.24.0
<neteditConfiguration xmlns:xsi="http://www.w3.org/2001/XMLSchema-instance" xsi:noNamespaceSchemaLocation="http://sumo.dlr.de/xsd/neteditConfiguration.xsd">

    <input>
        <sumo-net-file value="/home/julien/project/demo-intersection/demo-intersection.net.xml"/>
    </input>

    <output>
        <output-file value="/home/julien/project/demo-intersection/demo-intersection.net.xml"/>
    </output>

    <processing>
        <geometry.min-radius.fix.railways value="false"/>
        <geometry.avoid-overlap value="false"/>
        <geometry.max-grade.fix value="false"/>
        <offset.disable-normalization value="true"/>
        <lefthand value="0"/>
    </processing>

    <junctions>
        <no-internal-links value="false"/>
        <no-turnarounds value="true"/>
        <junctions.corner-detail value="5"/>
        <junctions.limit-turn-speed value="5.50"/>
        <rectangular-lane-cut value="0"/>
    </junctions>

    <pedestrian>
        <walkingareas value="0"/>
    </pedestrian>

</neteditConfiguration>
-->

<net version="1.20" junctionCornerDetail="5" limitTurnSpeed="5.50" avoidOverlap="0" xmlns:xsi="http://www.w3.org/2001/XMLSchema-instance" xsi:noNamespaceSchemaLocation="http://sumo.dlr.de/xsd/net_file.xsd">

    <location netOffset="0.00,0.00" convBoundary="-400.00,-100.00,-200.00,100.00" origBoundary="-10000000000.00,-10000000000.00,10000000000.00,10000000000.00" projParameter="!"/>

    <edge id=":east_end_w0" function="walkingarea">
        <lane id=":east_end_w0_0" index="0" allow="pedestrian" speed="2.78" length="18.00" width="2.00" shape="-200.00,8.00 -200.00,10.00 -200.00,-10.00 -200.00,-8.00"/>
    </edge>
    <edge id=":main_junction_0" function="internal">
        <lane id=":main_junction_0_0" index="0" disallow="pedestrian" speed="6.51" length="4.75" shape="-306.40,12.00 -306.75,9.55 -307.80,7.80 -308.00,7.68"/>
    </edge>
    <edge id=":main_junction_1" function="internal">
        <lane id=":main_junction_1_0" index="0" disallow="pedestrian" speed="13.89" length="24.00" shape="-306.40,12.00 -306.40,-12.00"/>
        <lane id=":main_junction_1_1" index="1" disallow="pedestrian" speed="13.89" length="24.00" shape="-303.20,12.00 -303.20,-12.00"/>
    </edge>
    <edge id=":main_junction_3" function="internal">
        <lane id=":main_junction_3_0" index="0" disallow="pedestrian" speed="9.84" length="6.30" shape="-300.00,12.00 -299.29,5.74"/>
    </edge>
    <edge id=":main_junction_16" function="internal">
        <lane id=":main_junction_16_0" index="0" disallow="pedestrian" speed="6.51" length="4.28" shape="-308.00,7.68 -309.55,6.75 -312.00,6.40"/>
    </edge>
    <edge id=":main_junction_17" function="internal">
        <lane id=":main_junction_17_0" index="0" disallow="pedestrian" speed="9.84" length="15.70" shape="-299.29,5.74 -299.25,5.35 -297.00,0.60 -293.25,-2.25 -288.00,-3.20"/>
    </edge>
    <edge id=":main_junction_4" function="internal">
        <lane id=":main_junction_4_0" index="0" disallow="pedestrian" speed="6.51" length="4.75" shape="-288.00,6.40 -290.45,6.75 -292.20,7.80 -292.32,8.00"/>
    </edge>
    <edge id=":main_junction_5" function="internal">
        <lane id=":main_junction_5_0" index="0" disallow="pedestrian" speed="13.89" length="24.00" shape="-288.00,6.40 -312.00,6.40"/>
        <lane id=":main_junction_5_1" index="1" disallow="pedestrian" speed="13.89" length="24.00" shape="-288.00,3.20 -312.00,3.20"/>
    </edge>
    <edge id=":main_junction_7" function="internal">
        <lane id=":main_junction_7_0" index="0" disallow="pedestrian" speed="9.84" length="6.30" shape="-288.00,-0.00 -294.26,-0.71"/>
    </edge>
    <edge id=":main_junction_18" function="internal">
        <lane id=":main_junction_18_0" index="0" disallow="pedestrian" speed="6.51" length="4.28" shape="-292.32,8.00 -293.25,9.55 -293.60,12.00"/>
    </edge>
    <edge id=":main_junction_19" function="internal">
        <lane id=":main_junction_19_0" index="0" disallow="pedestrian" speed="9.84" length="15.70" shape="-294.26,-0.71 -294.65,-0.75 -299.40,-3.00 -302.25,-6.75 -303.20,-12.00"/>
    </edge>
    <edge id=":main_junction_8" function="internal">
        <lane id=":main_junction_8_0" index="0" disallow="pedestrian" speed="6.51" length="4.75" shape="-293.60,-12.00 -293.25,-9.55 -292.20,-7.80 -292.00,-7.68"/>
    </edge>
    <edge id=":main_junction_9" function="internal">
        <lane id=":main_junction_9_0" index="0" disallow="pedestrian" speed="13.89" length="24.00" shape="-293.60,-12.00 -293.60,12.00"/>
        <lane id=":main_junction_9_1" index="1" disallow="pedestrian" speed="13.89" length="24.00" shape="-296.80,-12.00 -296.80,12.00"/>
    </edge>
    <edge id=":main_junction_11" function="internal">
        <lane id=":main_junction_11_0" index="0" disallow="pedestrian" speed="9.84" length="6.30" shape="-300.00,-12.00 -300.71,-5.74"/>
    </edge>
    <edge id=":main_junction_20" function="internal">
        <lane id=":main_junction_20_0" index="0" disallow="pedestrian" speed="6.51" length="4.28" shape="-292.00,-7.68 -290.45,-6.75 -288.00,-6.40"/>
    </edge>
    <edge id=":main_junction_21" function="internal">
        <lane id=":main_junction_21_0" index="0" disallow="pedestrian" speed="9.84" length="15.70" shape="-300.71,-5.74 -300.75,-5.35 -303.00,-0.60 -306.75,2.25 -312.00,3.20"/>
    </edge>
    <edge id=":main_junction_12" function="internal">
        <lane id=":main_junction_12_0" index="0" disallow="pedestrian" speed="6.51" length="4.75" shape="-312.00,-6.40 -309.55,-6.75 -307.80,-7.80 -307.68,-8.00"/>
    </edge>
    <edge id=":main_junction_13" function="internal">
        <lane id=":main_junction_13_0" index="0" disallow="pedestrian" speed="13.89" length="24.00" shape="-312.00,-6.40 -288.00,-6.40"/>
        <lane id=":main_junction_13_1" index="1" disallow="pedestrian" speed="13.89" length="24.00" shape="-312.00,-3.20 -288.00,-3.20"/>
    </edge>
    <edge id=":main_junction_15" function="internal">
        <lane id=":main_junction_15_0" index="0" disallow="pedestrian" speed="9.84" length="6.30" shape="-312.00,0.00 -305.74,0.71"/>
    </edge>
    <edge id=":main_junction_22" function="internal">
        <lane id=":main_junction_22_0" index="0" disallow="pedestrian" speed="6.51" length="4.28" shape="-307.68,-8.00 -306.75,-9.55 -306.40,-12.00"/>
    </edge>
    <edge id=":main_junction_23" function="internal">
        <lane id=":main_junction_23_0" index="0" disallow="pedestrian" speed="9.84" length="15.70" shape="-305.74,0.71 -305.35,0.75 -300.60,3.00 -297.75,6.75 -296.80,12.00"/>
    </edge>
    <edge id=":main_junction_c0" function="crossing" crossingEdges="north_out north_in">
        <lane id=":main_junction_c0_0" index="0" allow="pedestrian" speed="2.78" length="16.00" width="4.00" shape="-292.00,10.00 -308.00,10.00" outlineShape="-292.00,12.00 -308.00,12.00 -308.11,10.78 -308.44,9.78 -309.00,9.00 -309.78,8.44 -310.11,8.33 -308.00,8.00 -292.00,8.00 -289.89,8.33 -290.22,8.44 -291.00,9.00 -291.56,9.78 -291.89,10.78"/>
    </edge>
    <edge id=":main_junction_c1" function="crossing" crossingEdges="east_out east_in">
        <lane id=":main_junction_c1_0" index="0" allow="pedestrian" speed="2.78" length="16.00" width="4.00" shape="-290.00,-8.00 -290.00,8.00" outlineShape="-288.00,-8.10 -288.00,8.10 -292.00,12.00 -290.00,12.00 -288.00,10.00 -288.00,8.00 -292.00,12.00 -292.00,-12.00 -291.89,-10.78 -291.56,-9.78 -291.00,-9.00 -290.22,-8.44 -289.22,-8.11"/>
    </edge>
    <edge id=":main_junction_c2" function="crossing" crossingEdges="south_out south_in">
        <lane id=":main_junction_c2_0" index="0" allow="pedestrian" speed="2.78" length="16.00" width="4.00" shape="-308.00,-10.00 -292.00,-10.00" outlineShape="-308.00,-12.00 -292.00,-12.00 -291.89,-10.78 -291.56,-9.78 -291.00,-9.00 -290.22,-8.44 -289.89,-8.33 -292.00,-8.00 -308.00,-8.00 -310.11,-8.33 -309.78,-8.44 -309.00,-9.00 -308.44,-9.78 -308.11,-10.78"/>
    </edge>
    <edge id=":main_junction_c3" function="crossing" crossingEdges="west_out west_in">
        <lane id=":main_junction_c3_0" index="0" allow="pedestrian" speed="2.78" length="16.00" width="4.00" shape="-310.00,8.00 -310.00,-8.00" outlineShape="-312.00,8.10 -312.00,-8.10 -308.00,-12.00 -310.00,-12.00 -312.00,-10.00 -312.00,-8.00 -308.00,-12.00 -308.00,12.00 -308.11,10.78 -308.44,9.78 -309.00,9.00 -309.78,8.44 -310.78,8.11"/>
    </edge>
    <edge id=":main_junction_w0" function="walkingarea">
        <lane id=":main_junction_w0_0" index="0" allow="pedestrian" speed="2.78" length="3.30" width="4.00" shape="-312.00,8.00 -312.00,10.00 -310.00,12.00 -308.00,12.00 -308.11,10.78 -308.44,9.78 -309.00,9.00 -309.78,8.44 -310.78,8.11"/>
    </edge>
    <edge id=":main_junction_w1" function="walkingarea">
        <lane id=":main_junction_w1_0" index="0" allow="pedestrian" speed="2.78" length="3.30" width="4.00" shape="-292.00,12.00 -290.00,12.00 -288.00,10.00 -288.00,8.00 -289.22,8.11 -290.22,8.44 -291.00,9.00 -291.56,9.78 -291.89,10.78"/>
    </edge>
    <edge id=":main_junction_w2" function="walkingarea">
        <lane id=":main_junction_w2_0" index="0" allow="pedestrian" speed="2.78" length="3.30" width="4.00" shape="-288.00,-8.00 -288.00,-10.00 -290.00,-12.00 -292.00,-12.00 -291.89,-10.78 -291.56,-9.78 -291.00,-9.00 -290.22,-8.44 -289.22,-8.11"/>
    </edge>
    <edge id=":main_junction_w3" function="walkingarea">
        <lane id=":main_junction_w3_0" index="0" allow="pedestrian" speed="2.78" length="3.30" width="4.00" shape="-308.00,-12.00 -310.00,-12.00 -312.00,-10.00 -312.00,-8.00 -310.78,-8.11 -309.78,-8.44 -309.00,-9.00 -308.44,-9.78 -308.11,-10.78"/>
    </edge>
    <edge id=":north_end_w0" function="walkingarea">
        <lane id=":north_end_w0_0" index="0" allow="pedestrian" speed="2.78" length="18.00" width="2.00" shape="-308.00,100.00 -310.00,100.00 -290.00,100.00 -292.00,100.00"/>
    </edge>
    <edge id=":south_end_w0" function="walkingarea">
        <lane id=":south_end_w0_0" index="0" allow="pedestrian" speed="2.78" length="18.00" width="2.00" shape="-292.00,-100.00 -290.00,-100.00 -310.00,-100.00 -308.00,-100.00"/>
    </edge>
    <edge id=":west_end_w0" function="walkingarea">
        <lane id=":west_end_w0_0" index="0" allow="pedestrian" speed="2.78" length="18.00" width="2.00" shape="-400.00,-8.00 -400.00,-10.00 -400.00,10.00 -400.00,8.00"/>
    </edge>

    <edge id="east_in" from="east_end" to="main_junction" priority="-1" spreadType="roadCenter">
        <lane id="east_in_0" index="0" allow="pedestrian" speed="13.89" length="88.00" width="2.00" shape="-200.00,9.00 -288.00,9.00"/>
        <lane id="east_in_1" index="1" disallow="pedestrian" speed="13.89" length="88.00" shape="-200.00,6.40 -288.00,6.40"/>
        <lane id="east_in_2" index="2" disallow="pedestrian" speed="13.89" length="88.00" shape="-200.00,3.20 -288.00,3.20"/>
        <lane id="east_in_3" index="3" disallow="pedestrian" speed="13.89" length="88.00" shape="-200.00,-0.00 -288.00,-0.00"/>
    </edge>
    <edge id="east_out" from="main_junction" to="east_end" priority="-1" spreadType="roadCenter">
        <lane id="east_out_0" index="0" allow="pedestrian" speed="13.89" length="88.00" width="2.00" shape="-288.00,-9.00 -200.00,-9.00"/>
        <lane id="east_out_1" index="1" disallow="pedestrian" speed="13.89" length="88.00" shape="-288.00,-6.40 -200.00,-6.40"/>
        <lane id="east_out_2" index="2" disallow="pedestrian" speed="13.89" length="88.00" shape="-288.00,-3.20 -200.00,-3.20"/>
    </edge>
    <edge id="north_in" from="north_end" to="main_junction" priority="-1" spreadType="roadCenter">
        <lane id="north_in_0" index="0" allow="pedestrian" speed="13.89" length="88.00" width="2.00" shape="-309.00,100.00 -309.00,12.00"/>
        <lane id="north_in_1" index="1" disallow="pedestrian" speed="13.89" length="88.00" shape="-306.40,100.00 -306.40,12.00"/>
        <lane id="north_in_2" index="2" disallow="pedestrian" speed="13.89" length="88.00" shape="-303.20,100.00 -303.20,12.00"/>
        <lane id="north_in_3" index="3" disallow="pedestrian" speed="13.89" length="88.00" shape="-300.00,100.00 -300.00,12.00"/>
    </edge>
    <edge id="north_out" from="main_junction" to="north_end" priority="-1" spreadType="roadCenter">
        <lane id="north_out_0" index="0" allow="pedestrian" speed="13.89" length="88.00" width="2.00" shape="-291.00,12.00 -291.00,100.00"/>
        <lane id="north_out_1" index="1" disallow="pedestrian" speed="13.89" length="88.00" shape="-293.60,12.00 -293.60,100.00"/>
        <lane id="north_out_2" index="2" disallow="pedestrian" speed="13.89" length="88.00" shape="-296.80,12.00 -296.80,100.00"/>
    </edge>
    <edge id="south_in" from="south_end" to="main_junction" priority="-1" spreadType="roadCenter">
        <lane id="south_in_0" index="0" allow="pedestrian" speed="13.89" length="88.00" width="2.00" shape="-291.00,-100.00 -291.00,-12.00"/>
        <lane id="south_in_1" index="1" disallow="pedestrian" speed="13.89" length="88.00" shape="-293.60,-100.00 -293.60,-12.00"/>
        <lane id="south_in_2" index="2" disallow="pedestrian" speed="13.89" length="88.00" shape="-296.80,-100.00 -296.80,-12.00"/>
        <lane id="south_in_3" index="3" disallow="pedestrian" speed="13.89" length="88.00" shape="-300.00,-100.00 -300.00,-12.00"/>
    </edge>
    <edge id="south_out" from="main_junction" to="south_end" priority="-1" spreadType="roadCenter">
        <lane id="south_out_0" index="0" allow="pedestrian" speed="13.89" length="88.00" width="2.00" shape="-309.00,-12.00 -309.00,-100.00"/>
        <lane id="south_out_1" index="1" disallow="pedestrian" speed="13.89" length="88.00" shape="-306.40,-12.00 -306.40,-100.00"/>
        <lane id="south_out_2" index="2" disallow="pedestrian" speed="13.89" length="88.00" shape="-303.20,-12.00 -303.20,-100.00"/>
    </edge>
    <edge id="west_in" from="west_end" to="main_junction" priority="-1" spreadType="roadCenter">
        <lane id="west_in_0" index="0" allow="pedestrian" speed="13.89" length="88.00" width="2.00" shape="-400.00,-9.00 -312.00,-9.00"/>
        <lane id="west_in_1" index="1" disallow="pedestrian" speed="13.89" length="88.00" shape="-400.00,-6.40 -312.00,-6.40"/>
        <lane id="west_in_2" index="2" disallow="pedestrian" speed="13.89" length="88.00" shape="-400.00,-3.20 -312.00,-3.20"/>
        <lane id="west_in_3" index="3" disallow="pedestrian" speed="13.89" length="88.00" shape="-400.00,0.00 -312.00,0.00"/>
    </edge>
    <edge id="west_out" from="main_junction" to="west_end" priority="-1" spreadType="roadCenter">
        <lane id="west_out_0" index="0" allow="pedestrian" speed="13.89" length="88.00" width="2.00" shape="-312.00,9.00 -400.00,9.00"/>
        <lane id="west_out_1" index="1" disallow="pedestrian" speed="13.89" length="88.00" shape="-312.00,6.40 -400.00,6.40"/>
        <lane id="west_out_2" index="2" disallow="pedestrian" speed="13.89" length="88.00" shape="-312.00,3.20 -400.00,3.20"/>
    </edge>

    <tlLogic id="main_junction" type="static" programID="0" offset="0">
        <phase duration="28" state="gGGgrrrrgGGgrrrrrGrG"/>
        <phase duration="5"  state="gGGgrrrrgGGgrrrrrrrr"/>
        <phase duration="3"  state="yyygrrrryyygrrrrrrrr"/>
        <phase duration="6"  state="rrrGrrrrrrrGrrrrrrrr"/>
        <phase duration="3"  state="rrryrrrrrrryrrrrrrrr"/>
        <phase duration="28" state="rrrrgGGgrrrrgGGgGrGr"/>
        <phase duration="5"  state="rrrrgGGgrrrrgGGgrrrr"/>
        <phase duration="3"  state="rrrryyygrrrryyygrrrr"/>
        <phase duration="6"  state="rrrrrrrGrrrrrrrGrrrr"/>
        <phase duration="3"  state="rrrrrrryrrrrrrryrrrr"/>
    </tlLogic>

    <junction id="east_end" type="dead_end" x="-200.00" y="0.00" incLanes="east_out_0 east_out_1 east_out_2" intLanes="" shape="-200.00,-1.60 -200.00,-10.00 -200.00,-1.60"/>
    <junction id="main_junction" type="traffic_light" x="-300.00" y="0.00" incLanes="north_in_0 north_in_1 north_in_2 north_in_3 east_in_0 east_in_1 east_in_2 east_in_3 south_in_0 south_in_1 south_in_2 south_in_3 west_in_0 west_in_1 west_in_2 west_in_3 :main_junction_w1_0 :main_junction_w2_0 :main_junction_w3_0 :main_junction_w0_0" intLanes=":main_junction_16_0 :main_junction_1_0 :main_junction_1_1 :main_junction_17_0 :main_junction_18_0 :main_junction_5_0 :main_junction_5_1 :main_junction_19_0 :main_junction_20_0 :main_junction_9_0 :main_junction_9_1 :main_junction_21_0 :main_junction_22_0 :main_junction_13_0 :main_junction_13_1 :main_junction_23_0 :main_junction_c0_0 :main_junction_c1_0 :main_junction_c2_0 :main_junction_c3_0" shape="-310.00,12.00 -290.00,12.00 -289.78,10.89 -289.50,10.50 -289.11,10.22 -288.61,10.06 -288.00,10.00 -288.00,-10.00 -289.11,-10.22 -289.50,-10.50 -289.78,-10.89 -289.94,-11.39 -290.00,-12.00 -310.00,-12.00 -310.22,-10.89 -310.50,-10.50 -310.89,-10.22 -311.39,-10.06 -312.00,-10.00 -312.00,10.00 -310.89,10.22 -310.50,10.50 -310.22,10.89 -310.06,11.39">
        <request index="0"  response="10010000000000000000" foes="10010000000001100000" cont="1"/>
        <request index="1"  response="01011001000010000000" foes="01011111100011100000" cont="0"/>
        <request index="2"  response="01011001000010000000" foes="01011111100011100000" cont="0"/>
        <request index="3"  response="00111000011010000000" foes="00111110011011100000" cont="1"/>
        <request index="4"  response="00110000011000000000" foes="00110000011000000000" cont="1"/>
        <request index="5"  response="10100000111000001111" foes="10101000111000001111" cont="0"/>
        <request index="6"  response="10100000111000001111" foes="10101000111000001111" cont="0"/>
        <request index="7"  response="01100110111000001110" foes="01100110111000001110" cont="1"/>
        <request index="8"  response="01100000000000000000" foes="01100110000000000000" cont="1"/>
        <request index="9"  response="01011000000010010000" foes="01011110000011111000" cont="0"/>
        <request index="10" response="01011000000010010000" foes="01011110000011111000" cont="0"/>
        <request index="11" response="11001000000010000110" foes="11001110000011100110" cont="1"/>
        <request index="12" response="11000000000000000110" foes="11000000000000000110" cont="1"/>
        <request index="13" response="10100000111100001110" foes="10100000111110001110" cont="0"/>
        <request index="14" response="10100000111100001110" foes="10100000111110001110" cont="0"/>
        <request index="15" response="10010000111001101110" foes="10010000111001101110" cont="1"/>
        <request index="16" response="00000000000000000000" foes="00001000011000011111" cont="0"/>
        <request index="17" response="00000000000000000000" foes="00000110000111111000" cont="0"/>
        <request index="18" response="00000000000000000000" foes="00000001111110000110" cont="0"/>
        <request index="19" response="00000000000000000000" foes="00001111100001100001" cont="0"/>
    </junction>
    <junction id="north_end" type="dead_end" x="-300.00" y="100.00" incLanes="north_out_0 north_out_1 north_out_2" intLanes="" shape="-298.40,100.00 -290.00,100.00 -298.40,100.00"/>
    <junction id="south_end" type="dead_end" x="-300.00" y="-100.00" incLanes="south_out_0 south_out_1 south_out_2" intLanes="" shape="-301.60,-100.00 -310.00,-100.00 -301.60,-100.00"/>
    <junction id="west_end" type="dead_end" x="-400.00" y="0.00" incLanes="west_out_0 west_out_1 west_out_2" intLanes="" shape="-400.00,1.60 -400.00,10.00 -400.00,1.60"/>

    <junction id=":main_junction_16_0" type="internal" x="-308.00" y="7.68" incLanes=":main_junction_0_0" intLanes=":main_junction_5_0 :main_junction_5_1 :main_junction_11_0 :main_junction_c0_0 :main_junction_c3_0"/>
    <junction id=":main_junction_17_0" type="internal" x="-299.29" y="5.74" incLanes=":main_junction_3_0 south_in_1 south_in_2" intLanes=":main_junction_5_0 :main_junction_5_1 :main_junction_7_0 :main_junction_8_0 :main_junction_9_0 :main_junction_9_1 :main_junction_13_0 :main_junction_13_1 :main_junction_15_0 :main_junction_c0_0 :main_junction_c1_0"/>
    <junction id=":main_junction_18_0" type="internal" x="-292.32" y="8.00" incLanes=":main_junction_4_0" intLanes=":main_junction_9_0 :main_junction_9_1 :main_junction_15_0 :main_junction_c0_0 :main_junction_c1_0"/>
    <junction id=":main_junction_19_0" type="internal" x="-294.26" y="-0.71" incLanes=":main_junction_7_0 west_in_1 west_in_2" intLanes=":main_junction_1_0 :main_junction_1_1 :main_junction_3_0 :main_junction_9_0 :main_junction_9_1 :main_junction_11_0 :main_junction_12_0 :main_junction_13_0 :main_junction_13_1 :main_junction_c1_0 :main_junction_c2_0"/>
    <junction id=":main_junction_20_0" type="internal" x="-292.00" y="-7.68" incLanes=":main_junction_8_0" intLanes=":main_junction_3_0 :main_junction_13_0 :main_junction_13_1 :main_junction_c1_0 :main_junction_c2_0"/>
    <junction id=":main_junction_21_0" type="internal" x="-300.71" y="-5.74" incLanes=":main_junction_11_0 north_in_1 north_in_2" intLanes=":main_junction_0_0 :main_junction_1_0 :main_junction_1_1 :main_junction_5_0 :main_junction_5_1 :main_junction_7_0 :main_junction_13_0 :main_junction_13_1 :main_junction_15_0 :main_junction_c2_0 :main_junction_c3_0"/>
    <junction id=":main_junction_22_0" type="internal" x="-307.68" y="-8.00" incLanes=":main_junction_12_0" intLanes=":main_junction_1_0 :main_junction_1_1 :main_junction_7_0 :main_junction_c2_0 :main_junction_c3_0"/>
    <junction id=":main_junction_23_0" type="internal" x="-305.74" y="0.71" incLanes=":main_junction_15_0 east_in_1 east_in_2" intLanes=":main_junction_1_0 :main_junction_1_1 :main_junction_3_0 :main_junction_4_0 :main_junction_5_0 :main_junction_5_1 :main_junction_9_0 :main_junction_9_1 :main_junction_11_0 :main_junction_c0_0 :main_junction_c3_0"/>

    <connection from="east_in" to="north_out" fromLane="1" toLane="1" via=":main_junction_4_0" tl="main_junction" linkIndex="4" dir="r" state="o"/>
    <connection from="east_in" to="west_out" fromLane="1" toLane="1" via=":main_junction_5_0" tl="main_junction" linkIndex="5" dir="s" state="o"/>
    <connection from="east_in" to="west_out" fromLane="2" toLane="2" via=":main_junction_5_1" tl="main_junction" linkIndex="6" dir="s" state="o"/>
    <connection from="east_in" to="south_out" fromLane="3" toLane="2" via=":main_junction_7_0" tl="main_junction" linkIndex="7" dir="l" state="o"/>
    <connection from="north_in" to="west_out" fromLane="1" toLane="1" via=":main_junction_0_0" tl="main_junction" linkIndex="0" dir="r" state="o"/>
    <connection from="north_in" to="south_out" fromLane="1" toLane="1" via=":main_junction_1_0" tl="main_junction" linkIndex="1" dir="s" state="o"/>
    <connection from="north_in" to="south_out" fromLane="2" toLane="2" via=":main_junction_1_1" tl="main_junction" linkIndex="2" dir="s" state="o"/>
    <connection from="north_in" to="east_out" fromLane="3" toLane="2" via=":main_junction_3_0" tl="main_junction" linkIndex="3" dir="l" state="o"/>
    <connection from="south_in" to="east_out" fromLane="1" toLane="1" via=":main_junction_8_0" tl="main_junction" linkIndex="8" dir="r" state="o"/>
    <connection from="south_in" to="north_out" fromLane="1" toLane="1" via=":main_junction_9_0" tl="main_junction" linkIndex="9" dir="s" state="o"/>
    <connection from="south_in" to="north_out" fromLane="2" toLane="2" via=":main_junction_9_1" tl="main_junction" linkIndex="10" dir="s" state="o"/>
    <connection from="south_in" to="west_out" fromLane="3" toLane="2" via=":main_junction_11_0" tl="main_junction" linkIndex="11" dir="l" state="o"/>
    <connection from="west_in" to="south_out" fromLane="1" toLane="1" via=":main_junction_12_0" tl="main_junction" linkIndex="12" dir="r" state="o"/>
    <connection from="west_in" to="east_out" fromLane="1" toLane="1" via=":main_junction_13_0" tl="main_junction" linkIndex="13" dir="s" state="o"/>
    <connection from="west_in" to="east_out" fromLane="2" toLane="2" via=":main_junction_13_1" tl="main_junction" linkIndex="14" dir="s" state="o"/>
    <connection from="west_in" to="north_out" fromLane="3" toLane="2" via=":main_junction_15_0" tl="main_junction" linkIndex="15" dir="l" state="o"/>

    <connection from=":main_junction_0" to="west_out" fromLane="0" toLane="1" via=":main_junction_16_0" dir="r" state="m"/>
    <connection from=":main_junction_16" to="west_out" fromLane="0" toLane="1" dir="r" state="m"/>
    <connection from=":main_junction_1" to="south_out" fromLane="0" toLane="1" dir="s" state="M"/>
    <connection from=":main_junction_1" to="south_out" fromLane="1" toLane="2" dir="s" state="M"/>
    <connection from=":main_junction_3" to="east_out" fromLane="0" toLane="2" via=":main_junction_17_0" dir="l" state="m"/>
    <connection from=":main_junction_17" to="east_out" fromLane="0" toLane="2" dir="l" state="m"/>
    <connection from=":main_junction_4" to="north_out" fromLane="0" toLane="1" via=":main_junction_18_0" dir="r" state="m"/>
    <connection from=":main_junction_18" to="north_out" fromLane="0" toLane="1" dir="r" state="m"/>
    <connection from=":main_junction_5" to="west_out" fromLane="0" toLane="1" dir="s" state="M"/>
    <connection from=":main_junction_5" to="west_out" fromLane="1" toLane="2" dir="s" state="M"/>
    <connection from=":main_junction_7" to="south_out" fromLane="0" toLane="2" via=":main_junction_19_0" dir="l" state="m"/>
    <connection from=":main_junction_19" to="south_out" fromLane="0" toLane="2" dir="l" state="m"/>
    <connection from=":main_junction_8" to="east_out" fromLane="0" toLane="1" via=":main_junction_20_0" dir="r" state="m"/>
    <connection from=":main_junction_20" to="east_out" fromLane="0" toLane="1" dir="r" state="m"/>
    <connection from=":main_junction_9" to="north_out" fromLane="0" toLane="1" dir="s" state="M"/>
    <connection from=":main_junction_9" to="north_out" fromLane="1" toLane="2" dir="s" state="M"/>
    <connection from=":main_junction_11" to="west_out" fromLane="0" toLane="2" via=":main_junction_21_0" dir="l" state="m"/>
    <connection from=":main_junction_21" to="west_out" fromLane="0" toLane="2" dir="l" state="m"/>
    <connection from=":main_junction_12" to="south_out" fromLane="0" toLane="1" via=":main_junction_22_0" dir="r" state="m"/>
    <connection from=":main_junction_22" to="south_out" fromLane="0" toLane="1" dir="r" state="m"/>
    <connection from=":main_junction_13" to="east_out" fromLane="0" toLane="1" dir="s" state="M"/>
    <connection from=":main_junction_13" to="east_out" fromLane="1" toLane="2" dir="s" state="M"/>
    <connection from=":main_junction_15" to="north_out" fromLane="0" toLane="2" via=":main_junction_23_0" dir="l" state="m"/>
    <connection from=":main_junction_23" to="north_out" fromLane="0" toLane="2" dir="l" state="m"/>

    <connection from=":east_end_w0" to="east_in" fromLane="0" toLane="0" dir="s" state="M"/>
    <connection from="east_out" to=":east_end_w0" fromLane="0" toLane="0" dir="s" state="M"/>
    <connection from=":main_junction_c0" to=":main_junction_w0" fromLane="0" toLane="0" dir="s" state="M"/>
    <connection from=":main_junction_c1" to=":main_junction_w1" fromLane="0" toLane="0" dir="s" state="M"/>
    <connection from=":main_junction_c2" to=":main_junction_w2" fromLane="0" toLane="0" dir="s" state="M"/>
    <connection from=":main_junction_c3" to=":main_junction_w3" fromLane="0" toLane="0" dir="s" state="M"/>
    <connection from=":main_junction_w0" to=":main_junction_c3" fromLane="0" toLane="0" tl="main_junction" linkIndex="19" dir="s" state="M"/>
    <connection from=":main_junction_w0" to="west_out" fromLane="0" toLane="0" dir="s" state="M"/>
    <connection from="north_in" to=":main_junction_w0" fromLane="0" toLane="0" dir="s" state="M"/>
    <connection from=":main_junction_w1" to=":main_junction_c0" fromLane="0" toLane="0" tl="main_junction" linkIndex="16" dir="s" state="M"/>
    <connection from=":main_junction_w1" to="north_out" fromLane="0" toLane="0" dir="s" state="M"/>
    <connection from="east_in" to=":main_junction_w1" fromLane="0" toLane="0" dir="s" state="M"/>
    <connection from=":main_junction_w2" to=":main_junction_c1" fromLane="0" toLane="0" tl="main_junction" linkIndex="17" dir="s" state="M"/>
    <connection from=":main_junction_w2" to="east_out" fromLane="0" toLane="0" dir="s" state="M"/>
    <connection from="south_in" to=":main_junction_w2" fromLane="0" toLane="0" dir="s" state="M"/>
    <connection from=":main_junction_w3" to=":main_junction_c2" fromLane="0" toLane="0" tl="main_junction" linkIndex="18" dir="s" state="M"/>
    <connection from=":main_junction_w3" to="south_out" fromLane="0" toLane="0" dir="s" state="M"/>
    <connection from="west_in" to=":main_junction_w3" fromLane="0" toLane="0" dir="s" state="M"/>
    <connection from=":north_end_w0" to="north_in" fromLane="0" toLane="0" dir="s" state="M"/>
    <connection from="north_out" to=":north_end_w0" fromLane="0" toLane="0" dir="s" state="M"/>
    <connection from=":south_end_w0" to="south_in" fromLane="0" toLane="0" dir="s" state="M"/>
    <connection from="south_out" to=":south_end_w0" fromLane="0" toLane="0" dir="s" state="M"/>
    <connection from=":west_end_w0" to="west_in" fromLane="0" toLane="0" dir="s" state="M"/>
    <connection from="west_out" to=":west_end_w0" fromLane="0" toLane="0" dir="s" state="M"/>
</net>
